REMARK  4 active torsions:
REMARK  status: ('A' for Active; 'I' for Inactive)
REMARK    1  A    between atoms: O_2  and  C_6 
REMARK    2  A    between atoms: O_3  and  C_7 
REMARK    3  A    between atoms: O_4  and  C_8 
REMARK    4  A    between atoms: O_5  and  C_9 
ROOT
HETATM    1  O   LIG     1      -0.151  -1.783   0.410  1.00  0.00    -0.356 OA
HETATM    2  C   LIG     1       0.370   1.065   0.252  1.00  0.00     0.182 C 
HETATM    3  C   LIG     1      -0.950   0.486   0.767  1.00  0.00     0.204 C 
HETATM    4  C   LIG     1       1.477   0.034   0.481  1.00  0.00     0.173 C 
HETATM    5  C   LIG     1      -1.245  -0.893   0.163  1.00  0.00     0.288 C 
HETATM    6  C   LIG     1       1.093  -1.317  -0.116  1.00  0.00     0.205 C 
ENDROOT
BRANCH   2   7
HETATM    7  O   LIG     1       0.277   1.349  -1.145  1.00  0.00    -0.390 OA
HETATM    8  H   LIG     1      -0.473   1.956  -1.267  1.00  0.00     0.210 HD
ENDBRANCH   2   7
BRANCH   3   9
HETATM    9  O   LIG     1      -2.029   1.373   0.502  1.00  0.00    -0.388 OA
HETATM   10  H   LIG     1      -2.837   0.968   0.861  1.00  0.00     0.210 HD
ENDBRANCH   3   9
BRANCH   4  11
HETATM   11  O   LIG     1       2.702   0.472  -0.089  1.00  0.00    -0.391 OA
HETATM   12  H   LIG     1       2.552   0.617  -1.039  1.00  0.00     0.210 HD
ENDBRANCH   4  11
BRANCH   5  13
HETATM   13  O   LIG     1      -1.543  -0.786  -1.226  1.00  0.00    -0.369 OA
HETATM   14  H   LIG     1      -2.109  -1.542  -1.457  1.00  0.00     0.212 HD
ENDBRANCH   5  13
TORSDOF 4
